matpower/IEEE39.m
function mpc = IEEE39
mpc.version = "2";
mpc.baseMVA = 100.0;

%% bus data
%	bus_i type Pd Qd Gs Bs area Vm Va baseKV zone Vmax Vmin
mpc.bus = [
     1  1     0.000     0.000     0.000     0.000   1  1.0000  0.0000 345.000   1  1.100  0.900;
     2  1     0.000     0.000     0.000     0.000   1  1.0000  0.0000 345.000   1  1.100  0.900;
     3  1   322.000     2.400     0.000     0.000   1  1.0000  0.0000 345.000   1  1.100  0.900;
     4  1   500.000   184.000     0.000     0.000   1  1.0000  0.0000 345.000   1  1.100  0.900;
     5  1     0.000     0.000     0.000     0.000   1  1.0000  0.0000 345.000   1  1.100  0.900;
     6  1     0.000     0.000     0.000     0.000   1  1.0000  0.0000 345.000   1  1.100  0.900;
     7  1   233.800    84.000     0.000     0.000   1  1.0000  0.0000 345.000   1  1.100  0.900;
     8  1   522.000   176.000     0.000     0.000   1  1.0000  0.0000 345.000   1  1.100  0.900;
     9  1     0.000     0.000     0.000     0.000   1  1.0000  0.0000 345.000   1  1.100  0.900;
    10  1     0.000     0.000     0.000     0.000   1  1.0000  0.0000 345.000   1  1.100  0.900;
    11  1     0.000     0.000     0.000     0.000   1  1.0000  0.0000 345.000   1  1.100  0.900;
    12  1     7.500    88.000     0.000     0.000   1  1.0000  0.0000 154.000   1  1.100  0.900;
    13  1     0.000     0.000     0.000     0.000   1  1.0000  0.0000 345.000   1  1.100  0.900;
    14  1     0.000     0.000     0.000     0.000   1  1.0000  0.0000 345.000   1  1.100  0.900;
    15  1   320.000   153.000     0.000     0.000   1  1.0000  0.0000 345.000   1  1.100  0.900;
    16  1   329.400    32.300     0.000     0.000   1  1.0000  0.0000 345.000   1  1.100  0.900;
    17  1     0.000     0.000     0.000     0.000   1  1.0000  0.0000 345.000   1  1.100  0.900;
    18  1   158.000    30.000     0.000     0.000   1  1.0000  0.0000 345.000   1  1.100  0.900;
    19  1     0.000     0.000     0.000     0.000   1  1.0000  0.0000 345.000   1  1.100  0.900;
    20  1   628.000   103.000     0.000     0.000   1  1.0000  0.0000 345.000   1  1.100  0.900;
    21  1   274.000   115.000     0.000     0.000   1  1.0000  0.0000 345.000   1  1.100  0.900;
    22  1     0.000     0.000     0.000     0.000   1  1.0000  0.0000 345.000   1  1.100  0.900;
    23  1   247.500    84.600     0.000     0.000   1  1.0000  0.0000 345.000   1  1.100  0.900;
    24  1   308.600   -92.200     0.000     0.000   1  1.0000  0.0000 345.000   1  1.100  0.900;
    25  1   224.000    47.200     0.000     0.000   1  1.0000  0.0000 345.000   1  1.100  0.900;
    26  1   139.000    17.000     0.000     0.000   1  1.0000  0.0000 345.000   1  1.100  0.900;
    27  1   281.000    75.500     0.000     0.000   1  1.0000  0.0000 345.000   1  1.100  0.900;
    28  1   206.000    27.600     0.000     0.000   1  1.0000  0.0000 345.000   1  1.100  0.900;
    29  1   283.500    26.900     0.000     0.000   1  1.0000  0.0000 345.000   1  1.100  0.900;
    30  2     0.000     0.000     0.000     0.000   1  1.0000  0.0000  22.000   1  1.100  0.900;
    31  3     9.200     4.600     0.000     0.000   1  1.0000  0.0000  22.000   1  1.100  0.900;
    32  2     0.000     0.000     0.000     0.000   1  1.0000  0.0000  22.000   1  1.100  0.900;
    33  2     0.000     0.000     0.000     0.000   1  1.0000  0.0000  22.000   1  1.100  0.900;
    34  2     0.000     0.000     0.000     0.000   1  1.0000  0.0000  22.000   1  1.100  0.900;
    35  2     0.000     0.000     0.000     0.000   1  1.0000  0.0000  22.000   1  1.100  0.900;
    36  2     0.000     0.000     0.000     0.000   1  1.0000  0.0000  22.000   1  1.100  0.900;
    37  2     0.000     0.000     0.000     0.000   1  1.0000  0.0000  22.000   1  1.100  0.900;
    38  2     0.000     0.000     0.000     0.000   1  1.0000  0.0000  22.000   1  1.100  0.900;
    39  2  1104.000   250.000     0.000     0.000   1  1.0000  0.0000 345.000   1  1.100  0.900;
];

%% generator data - SyncMachine+Solar+Wind
%	bus Pg Qg Qmax Qmin Vg mBase status Pmax Pmin Pc1 Pc2 Qc1min Qc1max Qc2min Qc2max ramp_agc ramp_10 ramp_30 ramp_q apf
mpc.gen = [
    31  521.222  195.458  190.442 -190.442 1.0000  610.000 1  610.000    0.000 0.0 0.0 0.0 0.0 0.0 0.0 0.0 0.0 0.0 0.0 0.0;
    32  650.000  206.331  300.000 -224.784 1.0000  720.000 1  720.000    0.000 0.0 0.0 0.0 0.0 0.0 0.0 0.0 0.0 0.0 0.0 0.0;
    33  632.000  110.112  250.000 -218.540 1.0000  700.000 1  700.000    0.000 0.0 0.0 0.0 0.0 0.0 0.0 0.0 0.0 0.0 0.0 0.0;
    34  508.000  165.859  167.000 -174.832 1.0000  560.000 1  560.000    0.000 0.0 0.0 0.0 0.0 0.0 0.0 0.0 0.0 0.0 0.0 0.0;
    35  650.000  212.642  300.000 -100.000 1.0000  720.000 1  720.000    0.000 0.0 0.0 0.0 0.0 0.0 0.0 0.0 0.0 0.0 0.0 0.0;
    36  560.000  101.306  240.000 -190.442 1.0000  610.000 1  610.000    0.000 0.0 0.0 0.0 0.0 0.0 0.0 0.0 0.0 0.0 0.0 0.0;
    37  540.000    0.622  250.000 -187.320 1.0000  600.000 1  600.000    0.000 0.0 0.0 0.0 0.0 0.0 0.0 0.0 0.0 0.0 0.0 0.0;
    38  830.000   22.960  300.000 -287.224 1.0000  920.000 1  920.000    0.000 0.0 0.0 0.0 0.0 0.0 0.0 0.0 0.0 0.0 0.0 0.0;
    39 1000.000   88.985 9999.000 -9999.000 1.0000 10000.000 1 10000.000    0.000 0.0 0.0 0.0 0.0 0.0 0.0 0.0 0.0 0.0 0.0 0.0;
    30  250.000  146.456  400.000 -480.000 1.0000  480.000 1  480.000    0.000 0.0 0.0 0.0 0.0 0.0 0.0 0.0 0.0 0.0 0.0 0.0;
];

%% branch data - BESLine+BESCompSeries+collected transformers
%	fbus tbus r x b rateA rateB rateC ratio angle status angmin angmax
mpc.branch = [
    10    11  0.000400  0.004300  0.072900 0.0 0.0 0.0 0.0 0.0 1 0.0 0.0;
    10    13  0.000400  0.004300  0.072900 0.0 0.0 0.0 0.0 0.0 1 0.0 0.0;
    13    14  0.000900  0.010100  0.172300 0.0 0.0 0.0 0.0 0.0 1 0.0 0.0;
    14    15  0.001800  0.021700  0.366000 0.0 0.0 0.0 0.0 0.0 1 0.0 0.0;
    15    16  0.000900  0.009400  0.171000 0.0 0.0 0.0 0.0 0.0 1 0.0 0.0;
    16    17  0.000700  0.008900  0.134200 0.0 0.0 0.0 0.0 0.0 1 0.0 0.0;
    16    19  0.001600  0.019500  0.304000 0.0 0.0 0.0 0.0 0.0 1 0.0 0.0;
    16    21  0.000800  0.013500  0.254800 0.0 0.0 0.0 0.0 0.0 1 0.0 0.0;
    16    24  0.000300  0.005900  0.068000 0.0 0.0 0.0 0.0 0.0 1 0.0 0.0;
    17    18  0.000700  0.008200  0.131900 0.0 0.0 0.0 0.0 0.0 1 0.0 0.0;
    17    27  0.001300  0.017300  0.321600 0.0 0.0 0.0 0.0 0.0 1 0.0 0.0;
     1     2  0.003500  0.041100  0.698700 0.0 0.0 0.0 0.0 0.0 1 0.0 0.0;
     1    39  0.001000  0.025000  0.750000 0.0 0.0 0.0 0.0 0.0 1 0.0 0.0;
    21    22  0.000800  0.014000  0.256500 0.0 0.0 0.0 0.0 0.0 1 0.0 0.0;
    22    23  0.000600  0.009600  0.184600 0.0 0.0 0.0 0.0 0.0 1 0.0 0.0;
    23    24  0.002200  0.035000  0.361000 0.0 0.0 0.0 0.0 0.0 1 0.0 0.0;
    25    26  0.003200  0.032300  0.513000 0.0 0.0 0.0 0.0 0.0 1 0.0 0.0;
    26    27  0.001400  0.014700  0.239600 0.0 0.0 0.0 0.0 0.0 1 0.0 0.0;
    26    28  0.004300  0.047400  0.780200 0.0 0.0 0.0 0.0 0.0 1 0.0 0.0;
    26    29  0.005700  0.062500  1.029000 0.0 0.0 0.0 0.0 0.0 1 0.0 0.0;
    28    29  0.001400  0.015100  0.249000 0.0 0.0 0.0 0.0 0.0 1 0.0 0.0;
     2    25  0.007000  0.008600  0.146000 0.0 0.0 0.0 0.0 0.0 1 0.0 0.0;
     2     3  0.001300  0.015100  0.257200 0.0 0.0 0.0 0.0 0.0 1 0.0 0.0;
     3    18  0.001100  0.013300  0.213800 0.0 0.0 0.0 0.0 0.0 1 0.0 0.0;
     3     4  0.001300  0.021300  0.221400 0.0 0.0 0.0 0.0 0.0 1 0.0 0.0;
     4    14  0.000800  0.012900  0.138200 0.0 0.0 0.0 0.0 0.0 1 0.0 0.0;
     4     5  0.000800  0.012800  0.134200 0.0 0.0 0.0 0.0 0.0 1 0.0 0.0;
     5     6  0.000200  0.002600  0.043400 0.0 0.0 0.0 0.0 0.0 1 0.0 0.0;
     5     8  0.000800  0.011200  0.147600 0.0 0.0 0.0 0.0 0.0 1 0.0 0.0;
     6    11  0.000700  0.008200  0.138900 0.0 0.0 0.0 0.0 0.0 1 0.0 0.0;
     6     7  0.000600  0.009200  0.113000 0.0 0.0 0.0 0.0 0.0 1 0.0 0.0;
     7     8  0.000400  0.004600  0.078000 0.0 0.0 0.0 0.0 0.0 1 0.0 0.0;
     8     9  0.002300  0.036300  0.380400 0.0 0.0 0.0 0.0 0.0 1 0.0 0.0;
     9    39  0.001000  0.025000  1.200000 0.0 0.0 0.0 0.0 0.0 1 0.0 0.0;
    10    32  0.000000  0.020000 0.0  100.000  133.333  166.667 1.0 0.0 1 0.0 0.0;
    12    11  0.001600  0.043500 0.0  100.000  133.333  166.667 1.0 0.0 1 0.0 0.0;
    12    13  0.001600  0.043500 0.0  100.000  133.333  166.667 1.0 0.0 1 0.0 0.0;
    19    20  0.000700  0.013800 0.0  100.000  133.333  166.667 1.0 0.0 1 0.0 0.0;
    19    33  0.000700  0.014200 0.0  100.000  133.333  166.667 1.0 0.0 1 0.0 0.0;
    20    34  0.000900  0.018000 0.0  100.000  133.333  166.667 1.0 0.0 1 0.0 0.0;
    22    35  0.000000  0.014300 0.0  100.000  133.333  166.667 1.0 0.0 1 0.0 0.0;
    23    36  0.000500  0.027200 0.0  100.000  133.333  166.667 1.0 0.0 1 0.0 0.0;
    25    37  0.000600  0.023200 0.0  100.000  133.333  166.667 1.0 0.0 1 0.0 0.0;
    29    38  0.000800  0.015600 0.0  100.000  133.333  166.667 1.0 0.0 1 0.0 0.0;
     2    30  0.000000  0.018100 0.0  100.000  133.333  166.667 1.0 0.0 1 0.0 0.0;
     6    31  0.000000  0.025000 0.0  100.000  133.333  166.667 1.0 0.0 1 0.0 0.0;
];

%%-----  OPF Data  -----%%
%% generator cost data
%	1 startup shutdown n x1 y1 ... xn yn
%	2 startup shutdown n c(n-1) ... c0
mpc.gencost = [
  2 0 0 3 0.0060000 45.000 2230.000;
  2 0 0 3 0.0060000 45.000 2230.000;
  2 0 0 3 0.0060000 45.000 2230.000;
  2 0 0 3 0.0060000 45.000 2230.000;
  2 0 0 3 0.0060000 45.000 2230.000;
  2 0 0 3 0.0060000 45.000 2230.000;
  2 0 0 3 0.0060000 45.000 2230.000;
  2 0 0 3 0.0060000 45.000 2230.000;
  2 0 0 3 0.0060000 45.000 2230.000;
  2 0 0 3 0.0000100 0.010 0.000;
];

%% generator unit type (see GENTYPES)
% use WT, PV, HY, ST, CT, ST for corresponding GENFUELS
% WT and PV will use WECC dynamics; the others will use Gov/Exc/PSS dynamics
mpc.gentype = {
  'ST';
  'ST';
  'ST';
  'ST';
  'ST';
  'ST';
  'ST';
  'ST';
  'ST';
  'PV';
};

%% generator fuel type (see GENFUELS); use wind, solar, hydro, nuclear, ng, coal
mpc.genfuel = {
  'ng';
  'ng';
  'ng';
  'ng';
  'ng';
  'ng';
  'ng';
  'ng';
  'ng';
  'solar';
};

%% bus names
mpc.bus_name = {
  '1';
  '2';
  '3';
  '4';
  '5';
  '6';
  '7';
  '8';
  '9';
  '10';
  '11';
  '12';
  '13';
  '14';
  '15';
  '16';
  '17';
  '18';
  '19';
  '20';
  '21';
  '22';
  '23';
  '24';
  '25';
  '26';
  '27';
  '28';
  '29';
  '30';
  '31';
  '32';
  '33';
  '34';
  '35';
  '36';
  '37';
  '38';
  '39';
};
